# Packages
 &PACKAGES
 useGMRedi=.TRUE.,
 usePTRACERS=.TRUE.,
 useGCHEM=.TRUE.,
 useKPP=.TRUE.,
 useDiagnostics=.TRUE.,
 &
  
